MolHeader
  ELEMENTL09141821522D
Dotmatics Elemental
 17 17  0  0  0  0            999 V2000
    4.8528    0.7235    0.0000 O   0  0  0  0  0  0  0  0  0  0  0  0
    4.1362    1.1364    0.0000 S   0  0  0  0  0  0  0  0  0  0  0  0
    3.4197    1.5492    0.0000 O   0  0  0  0  0  0  0  0  0  0  0  0
    3.7234    0.4198    0.0000 C   0  0  0  0  0  0  0  0  0  0  0  0
    4.1375   -0.2960    0.0000 C   0  0  0  0  0  0  0  0  0  0  0  0
    3.7246   -1.0126    0.0000 C   0  0  0  0  0  0  0  0  0  0  0  0
    2.8976   -1.0133    0.0000 C   0  0  0  0  0  0  0  0  0  0  0  0
    2.4847   -1.7299    0.0000 O   0  0  0  0  0  0  0  0  0  0  0  0
    2.4835   -0.2975    0.0000 C   0  0  0  0  0  0  0  0  0  0  0  0
    2.8964    0.4191    0.0000 C   0  0  0  0  0  0  0  0  0  0  0  0
    1.6565   -0.2982    0.0000 C   0  0  0  0  0  0  0  0  0  0  0  0
    0.8295   -0.2989    0.0000 N   0  0  0  0  0  0  0  0  0  0  0  0
    4.5491    1.8530    0.0000 R#  0  0  0  0  0  0  0  0  0  0  0  0
    4.1387   -1.7284    0.0000 R#  0  0  0  0  0  0  0  0  0  0  0  0
    1.6577   -1.7306    0.0000 R#  0  0  0  0  0  0  0  0  0  0  0  0
    2.4823    1.1349    0.0000 H   0  0  0  0  0  0  0  0  0  0  0  0
    4.9645   -0.2953    0.0000 H   0  0  0  0  0  0  0  0  0  0  0  0
  1  2  2  0  0  0  0
  2  3  2  0  0  0  0
  2  4  1  0  0  0  0
  4 10  1  0  0  0  0
  4  5  2  0  0  0  0
  5  6  1  0  0  0  0
  6  7  2  0  0  0  0
  7  8  1  0  0  0  0
  7  9  1  0  0  0  0
  9 10  2  0  0  0  0
  9 11  1  0  0  0  0
 11 12  3  0  0  0  0
  2 13  1  0  0  0  0
  6 14  1  0  0  0  0
  8 15  1  0  0  0  0
 10 16  1  0  0  0  0
  5 17  1  0  0  0  0
M  RGP  3  13   1  14  10  15   3
M  END